13

C          1.0132226417        0.3329955686        0.1812866397
C         0.7255989775       -0.7660449415        0.2388625373
C         0.7293356067       -0.2309436666       -0.7649239428
C         0.3513618941        0.8291166557       -0.5995702064
C         0.3453146118       -0.0366957540        1.0245903005
C         0.1140240770        0.9491685999        0.5064104273
C        -1.0132240213       -0.3329960305       -0.1812867552
C        -0.1140234764       -0.9491689127       -0.5064103454
C        -0.3513615244       -0.8291170821        0.5995701458
C        -0.3453152548        0.0366956843       -1.0245902691
C        -0.7255983925        0.7660457628       -0.2388624662
C        -0.7293359733        0.2309438428        0.7649237858
C         0.0000008339        0.0000002733        0.0000001488
