25

C          0.6884429539       -0.4902635898       -1.4414708801
C          1.5396551009       -0.2813139477       -0.5852156965
C          0.2992192805       -0.8759083275        1.3497840799
C         -1.0925595292       -1.2175594744       -0.0502651686
C          0.9522409835        0.1104583918        1.2955305437
C         -1.2508551561       -0.4303582211       -0.9206118147
C          0.6892741454        1.3963220508       -0.1856296613
C         -0.1265862220        1.1960629687       -1.0063264757
C         -1.5531183915       -0.1668315742        0.1733133237
C         -0.1828336473        0.1695371326        1.5517325405
C         -0.4407747908        1.4576313083        0.0824813739
C          1.0886129477       -0.7118181353        0.4907160372
C         -0.2698891373       -1.0452995947       -0.8758256486
C         -0.7517788323       -0.6095115347        0.8960769718
C          0.8115876015        0.5108174607       -0.9314602554
C         -0.9972021004        0.6156520803       -0.4896383964
C          0.2948002720        0.9328016953        0.8100352760
C          0.0141198443       -1.1671917814        0.2707936990
C         -0.2290140421        0.0618638128       -1.1168902166
C          1.0617600945        0.3787136168        0.1815357335
C         -0.7275568920        0.4876290257        0.6042713445
C          0.4945173151       -0.4224563127       -0.3885123336
C         -0.5457016294       -0.3137559291       -0.1342207556
C          0.1856536312       -0.1342268229        0.6014654858
C          0.0479861996        0.5490057018       -0.1816691063
