5
Properties=species:S:1:pos:R:3 pbc="F F F"
C        0.91294191       0.00000126      -0.00001567
C        0.00000912      -0.50534775      -0.40719962
C        0.00000000       0.60534646      -0.23400438
C       -0.00000909      -0.09999464       0.64124835
C       -0.91293607      -0.00000661      -0.00002364
