38
Properties=species:S:1:pos:R:3 pbc="F F F"
C       -0.99098832       0.03469099      -0.90100866
C       -0.08870314      -0.06419473      -1.58482403
C       -1.45551493       0.18377773       0.61764661
C       -0.70987714       0.66751234      -0.02530394
C        1.77582256       0.59798360      -0.65756790
C        1.34407577       1.06891239       0.28649915
C        0.76158139       0.55650043      -1.11711138
C       -0.32258892       0.93962802      -1.06331229
C        1.14373064       1.51582233      -0.71609794
C        0.33517427       1.02612987      -0.16526069
C       -1.09372698       1.54286051      -0.53803841
C        0.42733739       1.15383482       0.92597886
C       -0.40614107       1.64609527       0.35709837
C       -1.74791440       0.63264893      -0.36591212
C       -0.63950775       0.80956700       1.06329598
C       -1.46196490       1.29341081       0.49042781
C        1.99074972       0.15650797       0.34528697
C        1.08700989       0.24031985       0.99001178
C        0.18090735       0.31947379       1.63158470
C        1.75764184      -0.52387286      -0.51464827
C        0.75342061      -0.56103316      -0.97691057
C        0.01100072       0.07231080      -0.52959842
C        0.97860776       0.11665202      -0.09954541
C       -1.73176010      -0.48095156      -0.24454724
C        1.33716690      -0.73401015       0.50076006
C        0.33728892      -0.75749433       0.05475092
C       -1.35886584      -0.96811028      -1.17153661
C       -0.31056180      -0.89793328      -0.84685863
C        1.09314801      -1.41728434      -0.36213766
C        0.67718073      -1.62164739       0.65556321
C        0.01417586      -1.75669108      -0.23607470
C       -0.38362486      -1.27745677       0.69747850
C       -0.70219698      -0.41914598       0.09017486
C       -0.63094947      -0.30411289       1.18421809
C        0.09441963       0.19401891       0.53601652
C       -1.05344720      -1.40638907      -0.19347678
C       -1.44156748      -0.92572664       0.73778263
C        0.42929770      -0.65255529       1.14512961
